
---------- Begin Simulation Statistics ----------
final_tick                               201656228500                       # Number of ticks from beginning of simulation (restored from checkpoints and never reset)
host_inst_rate                                  25098                       # Simulator instruction rate (inst/s)
host_mem_usage                                1152208                       # Number of bytes of host memory used
host_op_rate                                   277393                       # Simulator op (including micro ops) rate (op/s)
host_seconds                                    85.75                       # Real time elapsed on the host
host_tick_rate                             2351699042                       # Simulator tick rate (ticks/s)
sim_freq                                 1000000000000                       # Frequency of simulated ticks
sim_insts                                     2152088                       # Number of instructions simulated
sim_ops                                      23786194                       # Number of ops (including micro ops) simulated
sim_seconds                                  0.201656                       # Number of seconds simulated
sim_ticks                                201656228500                       # Number of ticks simulated
system.clk_domain.clock                          1000                       # Clock period in ticks
system.cpu0.Branches                          5618902                       # Number of branches fetched
system.cpu0.apic_clk_domain.clock                8000                       # Clock period in ticks
system.cpu0.committedInsts                    2152088                       # Number of instructions committed
system.cpu0.committedOps                     23786194                       # Number of ops (including micro ops) committed
system.cpu0.dtb.pwrStateResidencyTicks::UNDEFINED 201656228500                       # Cumulative time (in ticks) in various power states
system.cpu0.dtb.rdAccesses                     262793                       # TLB accesses on read requests
system.cpu0.dtb.rdMisses                           17                       # TLB misses on read requests
system.cpu0.dtb.walker.pwrStateResidencyTicks::UNDEFINED 201656228500                       # Cumulative time (in ticks) in various power states
system.cpu0.dtb.wrAccesses                    4997306                       # TLB accesses on write requests
system.cpu0.dtb.wrMisses                            8                       # TLB misses on write requests
system.cpu0.idle_fraction                           0                       # Percentage of idle cycles
system.cpu0.interrupts.pwrStateResidencyTicks::UNDEFINED 201656228500                       # Cumulative time (in ticks) in various power states
system.cpu0.itb.pwrStateResidencyTicks::UNDEFINED 201656228500                       # Cumulative time (in ticks) in various power states
system.cpu0.itb.rdAccesses                          0                       # TLB accesses on read requests
system.cpu0.itb.rdMisses                            0                       # TLB misses on read requests
system.cpu0.itb.walker.pwrStateResidencyTicks::UNDEFINED 201656228500                       # Cumulative time (in ticks) in various power states
system.cpu0.itb.wrAccesses                    3016804                       # TLB accesses on write requests
system.cpu0.itb.wrMisses                           33                       # TLB misses on write requests
system.cpu0.kern.inst.arm                           0                       # number of arm instructions executed
system.cpu0.kern.inst.quiesce                       0                       # number of quiesce instructions executed
system.cpu0.not_idle_fraction                       1                       # Percentage of non-idle cycles
system.cpu0.numCycles                       403312378                       # number of cpu cycles simulated
system.cpu0.numWorkItemsCompleted                   0                       # number of work items this cpu completed
system.cpu0.numWorkItemsStarted                     0                       # number of work items this cpu started
system.cpu0.num_busy_cycles                 403312378                       # Number of busy cycles
system.cpu0.num_cc_register_reads            27676309                       # number of times the CC registers were read
system.cpu0.num_cc_register_writes            6831634                       # number of times the CC registers were written
system.cpu0.num_conditional_control_insts      5399882                       # number of instructions that are conditional controls
system.cpu0.num_fp_alu_accesses                     0                       # Number of float alu accesses
system.cpu0.num_fp_insts                            0                       # number of float instructions
system.cpu0.num_fp_register_reads                   0                       # number of times the floating registers were read
system.cpu0.num_fp_register_writes                  0                       # number of times the floating registers were written
system.cpu0.num_func_calls                      27444                       # number of times a function call or return occured
system.cpu0.num_idle_cycles                         0                       # Number of idle cycles
system.cpu0.num_int_alu_accesses             18785163                       # Number of integer alu accesses
system.cpu0.num_int_insts                    18785163                       # number of integer instructions
system.cpu0.num_int_register_reads           41060928                       # number of times the integer registers were read
system.cpu0.num_int_register_writes          13122250                       # number of times the integer registers were written
system.cpu0.num_load_insts                     272088                       # Number of load instructions
system.cpu0.num_mem_refs                      5278689                       # number of memory refs
system.cpu0.num_store_insts                   5006601                       # Number of store instructions
system.cpu0.num_vec_alu_accesses                    0                       # Number of vector alu accesses
system.cpu0.num_vec_insts                           0                       # number of vector instructions
system.cpu0.num_vec_register_reads                  0                       # number of times the vector registers were read
system.cpu0.num_vec_register_writes                 0                       # number of times the vector registers were written
system.cpu0.op_class::No_OpClass              4962873     20.86%     20.86% # Class of executed instruction
system.cpu0.op_class::IntAlu                 13544452     56.94%     77.81% # Class of executed instruction
system.cpu0.op_class::IntMult                     166      0.00%     77.81% # Class of executed instruction
system.cpu0.op_class::IntDiv                       14      0.00%     77.81% # Class of executed instruction
system.cpu0.op_class::FloatAdd                      0      0.00%     77.81% # Class of executed instruction
system.cpu0.op_class::FloatCmp                      0      0.00%     77.81% # Class of executed instruction
system.cpu0.op_class::FloatCvt                      0      0.00%     77.81% # Class of executed instruction
system.cpu0.op_class::FloatMult                     0      0.00%     77.81% # Class of executed instruction
system.cpu0.op_class::FloatMultAcc                  0      0.00%     77.81% # Class of executed instruction
system.cpu0.op_class::FloatDiv                      0      0.00%     77.81% # Class of executed instruction
system.cpu0.op_class::FloatMisc                     0      0.00%     77.81% # Class of executed instruction
system.cpu0.op_class::FloatSqrt                     0      0.00%     77.81% # Class of executed instruction
system.cpu0.op_class::SimdAdd                       0      0.00%     77.81% # Class of executed instruction
system.cpu0.op_class::SimdAddAcc                    0      0.00%     77.81% # Class of executed instruction
system.cpu0.op_class::SimdAlu                       0      0.00%     77.81% # Class of executed instruction
system.cpu0.op_class::SimdCmp                       0      0.00%     77.81% # Class of executed instruction
system.cpu0.op_class::SimdCvt                       0      0.00%     77.81% # Class of executed instruction
system.cpu0.op_class::SimdMisc                      0      0.00%     77.81% # Class of executed instruction
system.cpu0.op_class::SimdMult                      0      0.00%     77.81% # Class of executed instruction
system.cpu0.op_class::SimdMultAcc                   0      0.00%     77.81% # Class of executed instruction
system.cpu0.op_class::SimdShift                     0      0.00%     77.81% # Class of executed instruction
system.cpu0.op_class::SimdShiftAcc                  0      0.00%     77.81% # Class of executed instruction
system.cpu0.op_class::SimdDiv                       0      0.00%     77.81% # Class of executed instruction
system.cpu0.op_class::SimdSqrt                      0      0.00%     77.81% # Class of executed instruction
system.cpu0.op_class::SimdFloatAdd                  0      0.00%     77.81% # Class of executed instruction
system.cpu0.op_class::SimdFloatAlu                  0      0.00%     77.81% # Class of executed instruction
system.cpu0.op_class::SimdFloatCmp                  0      0.00%     77.81% # Class of executed instruction
system.cpu0.op_class::SimdFloatCvt                  0      0.00%     77.81% # Class of executed instruction
system.cpu0.op_class::SimdFloatDiv                  0      0.00%     77.81% # Class of executed instruction
system.cpu0.op_class::SimdFloatMisc                 0      0.00%     77.81% # Class of executed instruction
system.cpu0.op_class::SimdFloatMult                 0      0.00%     77.81% # Class of executed instruction
system.cpu0.op_class::SimdFloatMultAcc              0      0.00%     77.81% # Class of executed instruction
system.cpu0.op_class::SimdFloatSqrt                 0      0.00%     77.81% # Class of executed instruction
system.cpu0.op_class::SimdReduceAdd                 0      0.00%     77.81% # Class of executed instruction
system.cpu0.op_class::SimdReduceAlu                 0      0.00%     77.81% # Class of executed instruction
system.cpu0.op_class::SimdReduceCmp                 0      0.00%     77.81% # Class of executed instruction
system.cpu0.op_class::SimdFloatReduceAdd            0      0.00%     77.81% # Class of executed instruction
system.cpu0.op_class::SimdFloatReduceCmp            0      0.00%     77.81% # Class of executed instruction
system.cpu0.op_class::SimdAes                       0      0.00%     77.81% # Class of executed instruction
system.cpu0.op_class::SimdAesMix                    0      0.00%     77.81% # Class of executed instruction
system.cpu0.op_class::SimdSha1Hash                  0      0.00%     77.81% # Class of executed instruction
system.cpu0.op_class::SimdSha1Hash2                 0      0.00%     77.81% # Class of executed instruction
system.cpu0.op_class::SimdSha256Hash                0      0.00%     77.81% # Class of executed instruction
system.cpu0.op_class::SimdSha256Hash2               0      0.00%     77.81% # Class of executed instruction
system.cpu0.op_class::SimdShaSigma2                 0      0.00%     77.81% # Class of executed instruction
system.cpu0.op_class::SimdShaSigma3                 0      0.00%     77.81% # Class of executed instruction
system.cpu0.op_class::SimdPredAlu                   0      0.00%     77.81% # Class of executed instruction
system.cpu0.op_class::MemRead                  272088      1.14%     78.95% # Class of executed instruction
system.cpu0.op_class::MemWrite                5006601     21.05%    100.00% # Class of executed instruction
system.cpu0.op_class::FloatMemRead                  0      0.00%    100.00% # Class of executed instruction
system.cpu0.op_class::FloatMemWrite                 0      0.00%    100.00% # Class of executed instruction
system.cpu0.op_class::IprAccess                     0      0.00%    100.00% # Class of executed instruction
system.cpu0.op_class::InstPrefetch                  0      0.00%    100.00% # Class of executed instruction
system.cpu0.op_class::total                  23786194                       # Class of executed instruction
system.cpu0.pwrStateResidencyTicks::ON   201656228500                       # Cumulative time (in ticks) in various power states
system.cpu1.apic_clk_domain.clock                8000                       # Clock period in ticks
system.cpu1.committedInsts                          0                       # Number of instructions committed
system.cpu1.committedOps                            0                       # Number of ops (including micro ops) committed
system.cpu1.dtb.pwrStateResidencyTicks::UNDEFINED 201656228500                       # Cumulative time (in ticks) in various power states
system.cpu1.dtb.rdAccesses                          0                       # TLB accesses on read requests
system.cpu1.dtb.rdMisses                            0                       # TLB misses on read requests
system.cpu1.dtb.walker.pwrStateResidencyTicks::UNDEFINED 201656228500                       # Cumulative time (in ticks) in various power states
system.cpu1.dtb.wrAccesses                          0                       # TLB accesses on write requests
system.cpu1.dtb.wrMisses                            0                       # TLB misses on write requests
system.cpu1.idle_fraction                           1                       # Percentage of idle cycles
system.cpu1.interrupts.pwrStateResidencyTicks::UNDEFINED 201656228500                       # Cumulative time (in ticks) in various power states
system.cpu1.itb.pwrStateResidencyTicks::UNDEFINED 201656228500                       # Cumulative time (in ticks) in various power states
system.cpu1.itb.rdAccesses                          0                       # TLB accesses on read requests
system.cpu1.itb.rdMisses                            0                       # TLB misses on read requests
system.cpu1.itb.walker.pwrStateResidencyTicks::UNDEFINED 201656228500                       # Cumulative time (in ticks) in various power states
system.cpu1.itb.wrAccesses                          0                       # TLB accesses on write requests
system.cpu1.itb.wrMisses                            0                       # TLB misses on write requests
system.cpu1.kern.inst.arm                           0                       # number of arm instructions executed
system.cpu1.kern.inst.quiesce                       0                       # number of quiesce instructions executed
system.cpu1.not_idle_fraction                       0                       # Percentage of non-idle cycles
system.cpu1.numCycles                               0                       # number of cpu cycles simulated
system.cpu1.numWorkItemsCompleted                   0                       # number of work items this cpu completed
system.cpu1.numWorkItemsStarted                     0                       # number of work items this cpu started
system.cpu1.num_busy_cycles                         0                       # Number of busy cycles
system.cpu1.num_conditional_control_insts            0                       # number of instructions that are conditional controls
system.cpu1.num_fp_alu_accesses                     0                       # Number of float alu accesses
system.cpu1.num_fp_insts                            0                       # number of float instructions
system.cpu1.num_fp_register_reads                   0                       # number of times the floating registers were read
system.cpu1.num_fp_register_writes                  0                       # number of times the floating registers were written
system.cpu1.num_func_calls                          0                       # number of times a function call or return occured
system.cpu1.num_idle_cycles                         0                       # Number of idle cycles
system.cpu1.num_int_alu_accesses                    0                       # Number of integer alu accesses
system.cpu1.num_int_insts                           0                       # number of integer instructions
system.cpu1.num_int_register_reads                  0                       # number of times the integer registers were read
system.cpu1.num_int_register_writes                 0                       # number of times the integer registers were written
system.cpu1.num_load_insts                          0                       # Number of load instructions
system.cpu1.num_mem_refs                            0                       # number of memory refs
system.cpu1.num_store_insts                         0                       # Number of store instructions
system.cpu1.num_vec_alu_accesses                    0                       # Number of vector alu accesses
system.cpu1.num_vec_insts                           0                       # number of vector instructions
system.cpu1.num_vec_register_reads                  0                       # number of times the vector registers were read
system.cpu1.num_vec_register_writes                 0                       # number of times the vector registers were written
system.cpu1.op_class::No_OpClass                    0                       # Class of executed instruction
system.cpu1.op_class::IntAlu                        0                       # Class of executed instruction
system.cpu1.op_class::IntMult                       0                       # Class of executed instruction
system.cpu1.op_class::IntDiv                        0                       # Class of executed instruction
system.cpu1.op_class::FloatAdd                      0                       # Class of executed instruction
system.cpu1.op_class::FloatCmp                      0                       # Class of executed instruction
system.cpu1.op_class::FloatCvt                      0                       # Class of executed instruction
system.cpu1.op_class::FloatMult                     0                       # Class of executed instruction
system.cpu1.op_class::FloatMultAcc                  0                       # Class of executed instruction
system.cpu1.op_class::FloatDiv                      0                       # Class of executed instruction
system.cpu1.op_class::FloatMisc                     0                       # Class of executed instruction
system.cpu1.op_class::FloatSqrt                     0                       # Class of executed instruction
system.cpu1.op_class::SimdAdd                       0                       # Class of executed instruction
system.cpu1.op_class::SimdAddAcc                    0                       # Class of executed instruction
system.cpu1.op_class::SimdAlu                       0                       # Class of executed instruction
system.cpu1.op_class::SimdCmp                       0                       # Class of executed instruction
system.cpu1.op_class::SimdCvt                       0                       # Class of executed instruction
system.cpu1.op_class::SimdMisc                      0                       # Class of executed instruction
system.cpu1.op_class::SimdMult                      0                       # Class of executed instruction
system.cpu1.op_class::SimdMultAcc                   0                       # Class of executed instruction
system.cpu1.op_class::SimdShift                     0                       # Class of executed instruction
system.cpu1.op_class::SimdShiftAcc                  0                       # Class of executed instruction
system.cpu1.op_class::SimdDiv                       0                       # Class of executed instruction
system.cpu1.op_class::SimdSqrt                      0                       # Class of executed instruction
system.cpu1.op_class::SimdFloatAdd                  0                       # Class of executed instruction
system.cpu1.op_class::SimdFloatAlu                  0                       # Class of executed instruction
system.cpu1.op_class::SimdFloatCmp                  0                       # Class of executed instruction
system.cpu1.op_class::SimdFloatCvt                  0                       # Class of executed instruction
system.cpu1.op_class::SimdFloatDiv                  0                       # Class of executed instruction
system.cpu1.op_class::SimdFloatMisc                 0                       # Class of executed instruction
system.cpu1.op_class::SimdFloatMult                 0                       # Class of executed instruction
system.cpu1.op_class::SimdFloatMultAcc              0                       # Class of executed instruction
system.cpu1.op_class::SimdFloatSqrt                 0                       # Class of executed instruction
system.cpu1.op_class::SimdReduceAdd                 0                       # Class of executed instruction
system.cpu1.op_class::SimdReduceAlu                 0                       # Class of executed instruction
system.cpu1.op_class::SimdReduceCmp                 0                       # Class of executed instruction
system.cpu1.op_class::SimdFloatReduceAdd            0                       # Class of executed instruction
system.cpu1.op_class::SimdFloatReduceCmp            0                       # Class of executed instruction
system.cpu1.op_class::SimdAes                       0                       # Class of executed instruction
system.cpu1.op_class::SimdAesMix                    0                       # Class of executed instruction
system.cpu1.op_class::SimdSha1Hash                  0                       # Class of executed instruction
system.cpu1.op_class::SimdSha1Hash2                 0                       # Class of executed instruction
system.cpu1.op_class::SimdSha256Hash                0                       # Class of executed instruction
system.cpu1.op_class::SimdSha256Hash2               0                       # Class of executed instruction
system.cpu1.op_class::SimdShaSigma2                 0                       # Class of executed instruction
system.cpu1.op_class::SimdShaSigma3                 0                       # Class of executed instruction
system.cpu1.op_class::SimdPredAlu                   0                       # Class of executed instruction
system.cpu1.op_class::MemRead                       0                       # Class of executed instruction
system.cpu1.op_class::MemWrite                      0                       # Class of executed instruction
system.cpu1.op_class::FloatMemRead                  0                       # Class of executed instruction
system.cpu1.op_class::FloatMemWrite                 0                       # Class of executed instruction
system.cpu1.op_class::IprAccess                     0                       # Class of executed instruction
system.cpu1.op_class::InstPrefetch                  0                       # Class of executed instruction
system.cpu1.op_class::total                         0                       # Class of executed instruction
system.cpu1.pwrStateResidencyTicks::ON   201656228500                       # Cumulative time (in ticks) in various power states
system.cpu2.apic_clk_domain.clock                8000                       # Clock period in ticks
system.cpu2.committedInsts                          0                       # Number of instructions committed
system.cpu2.committedOps                            0                       # Number of ops (including micro ops) committed
system.cpu2.dtb.pwrStateResidencyTicks::UNDEFINED 201656228500                       # Cumulative time (in ticks) in various power states
system.cpu2.dtb.rdAccesses                          0                       # TLB accesses on read requests
system.cpu2.dtb.rdMisses                            0                       # TLB misses on read requests
system.cpu2.dtb.walker.pwrStateResidencyTicks::UNDEFINED 201656228500                       # Cumulative time (in ticks) in various power states
system.cpu2.dtb.wrAccesses                          0                       # TLB accesses on write requests
system.cpu2.dtb.wrMisses                            0                       # TLB misses on write requests
system.cpu2.idle_fraction                           1                       # Percentage of idle cycles
system.cpu2.interrupts.pwrStateResidencyTicks::UNDEFINED 201656228500                       # Cumulative time (in ticks) in various power states
system.cpu2.itb.pwrStateResidencyTicks::UNDEFINED 201656228500                       # Cumulative time (in ticks) in various power states
system.cpu2.itb.rdAccesses                          0                       # TLB accesses on read requests
system.cpu2.itb.rdMisses                            0                       # TLB misses on read requests
system.cpu2.itb.walker.pwrStateResidencyTicks::UNDEFINED 201656228500                       # Cumulative time (in ticks) in various power states
system.cpu2.itb.wrAccesses                          0                       # TLB accesses on write requests
system.cpu2.itb.wrMisses                            0                       # TLB misses on write requests
system.cpu2.kern.inst.arm                           0                       # number of arm instructions executed
system.cpu2.kern.inst.quiesce                       0                       # number of quiesce instructions executed
system.cpu2.not_idle_fraction                       0                       # Percentage of non-idle cycles
system.cpu2.numCycles                               0                       # number of cpu cycles simulated
system.cpu2.numWorkItemsCompleted                   0                       # number of work items this cpu completed
system.cpu2.numWorkItemsStarted                     0                       # number of work items this cpu started
system.cpu2.num_busy_cycles                         0                       # Number of busy cycles
system.cpu2.num_conditional_control_insts            0                       # number of instructions that are conditional controls
system.cpu2.num_fp_alu_accesses                     0                       # Number of float alu accesses
system.cpu2.num_fp_insts                            0                       # number of float instructions
system.cpu2.num_fp_register_reads                   0                       # number of times the floating registers were read
system.cpu2.num_fp_register_writes                  0                       # number of times the floating registers were written
system.cpu2.num_func_calls                          0                       # number of times a function call or return occured
system.cpu2.num_idle_cycles                         0                       # Number of idle cycles
system.cpu2.num_int_alu_accesses                    0                       # Number of integer alu accesses
system.cpu2.num_int_insts                           0                       # number of integer instructions
system.cpu2.num_int_register_reads                  0                       # number of times the integer registers were read
system.cpu2.num_int_register_writes                 0                       # number of times the integer registers were written
system.cpu2.num_load_insts                          0                       # Number of load instructions
system.cpu2.num_mem_refs                            0                       # number of memory refs
system.cpu2.num_store_insts                         0                       # Number of store instructions
system.cpu2.num_vec_alu_accesses                    0                       # Number of vector alu accesses
system.cpu2.num_vec_insts                           0                       # number of vector instructions
system.cpu2.num_vec_register_reads                  0                       # number of times the vector registers were read
system.cpu2.num_vec_register_writes                 0                       # number of times the vector registers were written
system.cpu2.op_class::No_OpClass                    0                       # Class of executed instruction
system.cpu2.op_class::IntAlu                        0                       # Class of executed instruction
system.cpu2.op_class::IntMult                       0                       # Class of executed instruction
system.cpu2.op_class::IntDiv                        0                       # Class of executed instruction
system.cpu2.op_class::FloatAdd                      0                       # Class of executed instruction
system.cpu2.op_class::FloatCmp                      0                       # Class of executed instruction
system.cpu2.op_class::FloatCvt                      0                       # Class of executed instruction
system.cpu2.op_class::FloatMult                     0                       # Class of executed instruction
system.cpu2.op_class::FloatMultAcc                  0                       # Class of executed instruction
system.cpu2.op_class::FloatDiv                      0                       # Class of executed instruction
system.cpu2.op_class::FloatMisc                     0                       # Class of executed instruction
system.cpu2.op_class::FloatSqrt                     0                       # Class of executed instruction
system.cpu2.op_class::SimdAdd                       0                       # Class of executed instruction
system.cpu2.op_class::SimdAddAcc                    0                       # Class of executed instruction
system.cpu2.op_class::SimdAlu                       0                       # Class of executed instruction
system.cpu2.op_class::SimdCmp                       0                       # Class of executed instruction
system.cpu2.op_class::SimdCvt                       0                       # Class of executed instruction
system.cpu2.op_class::SimdMisc                      0                       # Class of executed instruction
system.cpu2.op_class::SimdMult                      0                       # Class of executed instruction
system.cpu2.op_class::SimdMultAcc                   0                       # Class of executed instruction
system.cpu2.op_class::SimdShift                     0                       # Class of executed instruction
system.cpu2.op_class::SimdShiftAcc                  0                       # Class of executed instruction
system.cpu2.op_class::SimdDiv                       0                       # Class of executed instruction
system.cpu2.op_class::SimdSqrt                      0                       # Class of executed instruction
system.cpu2.op_class::SimdFloatAdd                  0                       # Class of executed instruction
system.cpu2.op_class::SimdFloatAlu                  0                       # Class of executed instruction
system.cpu2.op_class::SimdFloatCmp                  0                       # Class of executed instruction
system.cpu2.op_class::SimdFloatCvt                  0                       # Class of executed instruction
system.cpu2.op_class::SimdFloatDiv                  0                       # Class of executed instruction
system.cpu2.op_class::SimdFloatMisc                 0                       # Class of executed instruction
system.cpu2.op_class::SimdFloatMult                 0                       # Class of executed instruction
system.cpu2.op_class::SimdFloatMultAcc              0                       # Class of executed instruction
system.cpu2.op_class::SimdFloatSqrt                 0                       # Class of executed instruction
system.cpu2.op_class::SimdReduceAdd                 0                       # Class of executed instruction
system.cpu2.op_class::SimdReduceAlu                 0                       # Class of executed instruction
system.cpu2.op_class::SimdReduceCmp                 0                       # Class of executed instruction
system.cpu2.op_class::SimdFloatReduceAdd            0                       # Class of executed instruction
system.cpu2.op_class::SimdFloatReduceCmp            0                       # Class of executed instruction
system.cpu2.op_class::SimdAes                       0                       # Class of executed instruction
system.cpu2.op_class::SimdAesMix                    0                       # Class of executed instruction
system.cpu2.op_class::SimdSha1Hash                  0                       # Class of executed instruction
system.cpu2.op_class::SimdSha1Hash2                 0                       # Class of executed instruction
system.cpu2.op_class::SimdSha256Hash                0                       # Class of executed instruction
system.cpu2.op_class::SimdSha256Hash2               0                       # Class of executed instruction
system.cpu2.op_class::SimdShaSigma2                 0                       # Class of executed instruction
system.cpu2.op_class::SimdShaSigma3                 0                       # Class of executed instruction
system.cpu2.op_class::SimdPredAlu                   0                       # Class of executed instruction
system.cpu2.op_class::MemRead                       0                       # Class of executed instruction
system.cpu2.op_class::MemWrite                      0                       # Class of executed instruction
system.cpu2.op_class::FloatMemRead                  0                       # Class of executed instruction
system.cpu2.op_class::FloatMemWrite                 0                       # Class of executed instruction
system.cpu2.op_class::IprAccess                     0                       # Class of executed instruction
system.cpu2.op_class::InstPrefetch                  0                       # Class of executed instruction
system.cpu2.op_class::total                         0                       # Class of executed instruction
system.cpu2.pwrStateResidencyTicks::ON   201656228500                       # Cumulative time (in ticks) in various power states
system.cpu3.apic_clk_domain.clock                8000                       # Clock period in ticks
system.cpu3.committedInsts                          0                       # Number of instructions committed
system.cpu3.committedOps                            0                       # Number of ops (including micro ops) committed
system.cpu3.dtb.pwrStateResidencyTicks::UNDEFINED 201656228500                       # Cumulative time (in ticks) in various power states
system.cpu3.dtb.rdAccesses                          0                       # TLB accesses on read requests
system.cpu3.dtb.rdMisses                            0                       # TLB misses on read requests
system.cpu3.dtb.walker.pwrStateResidencyTicks::UNDEFINED 201656228500                       # Cumulative time (in ticks) in various power states
system.cpu3.dtb.wrAccesses                          0                       # TLB accesses on write requests
system.cpu3.dtb.wrMisses                            0                       # TLB misses on write requests
system.cpu3.idle_fraction                           1                       # Percentage of idle cycles
system.cpu3.interrupts.pwrStateResidencyTicks::UNDEFINED 201656228500                       # Cumulative time (in ticks) in various power states
system.cpu3.itb.pwrStateResidencyTicks::UNDEFINED 201656228500                       # Cumulative time (in ticks) in various power states
system.cpu3.itb.rdAccesses                          0                       # TLB accesses on read requests
system.cpu3.itb.rdMisses                            0                       # TLB misses on read requests
system.cpu3.itb.walker.pwrStateResidencyTicks::UNDEFINED 201656228500                       # Cumulative time (in ticks) in various power states
system.cpu3.itb.wrAccesses                          0                       # TLB accesses on write requests
system.cpu3.itb.wrMisses                            0                       # TLB misses on write requests
system.cpu3.kern.inst.arm                           0                       # number of arm instructions executed
system.cpu3.kern.inst.quiesce                       0                       # number of quiesce instructions executed
system.cpu3.not_idle_fraction                       0                       # Percentage of non-idle cycles
system.cpu3.numCycles                               0                       # number of cpu cycles simulated
system.cpu3.numWorkItemsCompleted                   0                       # number of work items this cpu completed
system.cpu3.numWorkItemsStarted                     0                       # number of work items this cpu started
system.cpu3.num_busy_cycles                         0                       # Number of busy cycles
system.cpu3.num_conditional_control_insts            0                       # number of instructions that are conditional controls
system.cpu3.num_fp_alu_accesses                     0                       # Number of float alu accesses
system.cpu3.num_fp_insts                            0                       # number of float instructions
system.cpu3.num_fp_register_reads                   0                       # number of times the floating registers were read
system.cpu3.num_fp_register_writes                  0                       # number of times the floating registers were written
system.cpu3.num_func_calls                          0                       # number of times a function call or return occured
system.cpu3.num_idle_cycles                         0                       # Number of idle cycles
system.cpu3.num_int_alu_accesses                    0                       # Number of integer alu accesses
system.cpu3.num_int_insts                           0                       # number of integer instructions
system.cpu3.num_int_register_reads                  0                       # number of times the integer registers were read
system.cpu3.num_int_register_writes                 0                       # number of times the integer registers were written
system.cpu3.num_load_insts                          0                       # Number of load instructions
system.cpu3.num_mem_refs                            0                       # number of memory refs
system.cpu3.num_store_insts                         0                       # Number of store instructions
system.cpu3.num_vec_alu_accesses                    0                       # Number of vector alu accesses
system.cpu3.num_vec_insts                           0                       # number of vector instructions
system.cpu3.num_vec_register_reads                  0                       # number of times the vector registers were read
system.cpu3.num_vec_register_writes                 0                       # number of times the vector registers were written
system.cpu3.op_class::No_OpClass                    0                       # Class of executed instruction
system.cpu3.op_class::IntAlu                        0                       # Class of executed instruction
system.cpu3.op_class::IntMult                       0                       # Class of executed instruction
system.cpu3.op_class::IntDiv                        0                       # Class of executed instruction
system.cpu3.op_class::FloatAdd                      0                       # Class of executed instruction
system.cpu3.op_class::FloatCmp                      0                       # Class of executed instruction
system.cpu3.op_class::FloatCvt                      0                       # Class of executed instruction
system.cpu3.op_class::FloatMult                     0                       # Class of executed instruction
system.cpu3.op_class::FloatMultAcc                  0                       # Class of executed instruction
system.cpu3.op_class::FloatDiv                      0                       # Class of executed instruction
system.cpu3.op_class::FloatMisc                     0                       # Class of executed instruction
system.cpu3.op_class::FloatSqrt                     0                       # Class of executed instruction
system.cpu3.op_class::SimdAdd                       0                       # Class of executed instruction
system.cpu3.op_class::SimdAddAcc                    0                       # Class of executed instruction
system.cpu3.op_class::SimdAlu                       0                       # Class of executed instruction
system.cpu3.op_class::SimdCmp                       0                       # Class of executed instruction
system.cpu3.op_class::SimdCvt                       0                       # Class of executed instruction
system.cpu3.op_class::SimdMisc                      0                       # Class of executed instruction
system.cpu3.op_class::SimdMult                      0                       # Class of executed instruction
system.cpu3.op_class::SimdMultAcc                   0                       # Class of executed instruction
system.cpu3.op_class::SimdShift                     0                       # Class of executed instruction
system.cpu3.op_class::SimdShiftAcc                  0                       # Class of executed instruction
system.cpu3.op_class::SimdDiv                       0                       # Class of executed instruction
system.cpu3.op_class::SimdSqrt                      0                       # Class of executed instruction
system.cpu3.op_class::SimdFloatAdd                  0                       # Class of executed instruction
system.cpu3.op_class::SimdFloatAlu                  0                       # Class of executed instruction
system.cpu3.op_class::SimdFloatCmp                  0                       # Class of executed instruction
system.cpu3.op_class::SimdFloatCvt                  0                       # Class of executed instruction
system.cpu3.op_class::SimdFloatDiv                  0                       # Class of executed instruction
system.cpu3.op_class::SimdFloatMisc                 0                       # Class of executed instruction
system.cpu3.op_class::SimdFloatMult                 0                       # Class of executed instruction
system.cpu3.op_class::SimdFloatMultAcc              0                       # Class of executed instruction
system.cpu3.op_class::SimdFloatSqrt                 0                       # Class of executed instruction
system.cpu3.op_class::SimdReduceAdd                 0                       # Class of executed instruction
system.cpu3.op_class::SimdReduceAlu                 0                       # Class of executed instruction
system.cpu3.op_class::SimdReduceCmp                 0                       # Class of executed instruction
system.cpu3.op_class::SimdFloatReduceAdd            0                       # Class of executed instruction
system.cpu3.op_class::SimdFloatReduceCmp            0                       # Class of executed instruction
system.cpu3.op_class::SimdAes                       0                       # Class of executed instruction
system.cpu3.op_class::SimdAesMix                    0                       # Class of executed instruction
system.cpu3.op_class::SimdSha1Hash                  0                       # Class of executed instruction
system.cpu3.op_class::SimdSha1Hash2                 0                       # Class of executed instruction
system.cpu3.op_class::SimdSha256Hash                0                       # Class of executed instruction
system.cpu3.op_class::SimdSha256Hash2               0                       # Class of executed instruction
system.cpu3.op_class::SimdShaSigma2                 0                       # Class of executed instruction
system.cpu3.op_class::SimdShaSigma3                 0                       # Class of executed instruction
system.cpu3.op_class::SimdPredAlu                   0                       # Class of executed instruction
system.cpu3.op_class::MemRead                       0                       # Class of executed instruction
system.cpu3.op_class::MemWrite                      0                       # Class of executed instruction
system.cpu3.op_class::FloatMemRead                  0                       # Class of executed instruction
system.cpu3.op_class::FloatMemWrite                 0                       # Class of executed instruction
system.cpu3.op_class::IprAccess                     0                       # Class of executed instruction
system.cpu3.op_class::InstPrefetch                  0                       # Class of executed instruction
system.cpu3.op_class::total                         0                       # Class of executed instruction
system.cpu3.pwrStateResidencyTicks::ON   201656228500                       # Cumulative time (in ticks) in various power states
system.cpu4.apic_clk_domain.clock                8000                       # Clock period in ticks
system.cpu4.committedInsts                          0                       # Number of instructions committed
system.cpu4.committedOps                            0                       # Number of ops (including micro ops) committed
system.cpu4.dtb.pwrStateResidencyTicks::UNDEFINED 201656228500                       # Cumulative time (in ticks) in various power states
system.cpu4.dtb.rdAccesses                          0                       # TLB accesses on read requests
system.cpu4.dtb.rdMisses                            0                       # TLB misses on read requests
system.cpu4.dtb.walker.pwrStateResidencyTicks::UNDEFINED 201656228500                       # Cumulative time (in ticks) in various power states
system.cpu4.dtb.wrAccesses                          0                       # TLB accesses on write requests
system.cpu4.dtb.wrMisses                            0                       # TLB misses on write requests
system.cpu4.idle_fraction                           1                       # Percentage of idle cycles
system.cpu4.interrupts.pwrStateResidencyTicks::UNDEFINED 201656228500                       # Cumulative time (in ticks) in various power states
system.cpu4.itb.pwrStateResidencyTicks::UNDEFINED 201656228500                       # Cumulative time (in ticks) in various power states
system.cpu4.itb.rdAccesses                          0                       # TLB accesses on read requests
system.cpu4.itb.rdMisses                            0                       # TLB misses on read requests
system.cpu4.itb.walker.pwrStateResidencyTicks::UNDEFINED 201656228500                       # Cumulative time (in ticks) in various power states
system.cpu4.itb.wrAccesses                          0                       # TLB accesses on write requests
system.cpu4.itb.wrMisses                            0                       # TLB misses on write requests
system.cpu4.kern.inst.arm                           0                       # number of arm instructions executed
system.cpu4.kern.inst.quiesce                       0                       # number of quiesce instructions executed
system.cpu4.not_idle_fraction                       0                       # Percentage of non-idle cycles
system.cpu4.numCycles                               0                       # number of cpu cycles simulated
system.cpu4.numWorkItemsCompleted                   0                       # number of work items this cpu completed
system.cpu4.numWorkItemsStarted                     0                       # number of work items this cpu started
system.cpu4.num_busy_cycles                         0                       # Number of busy cycles
system.cpu4.num_conditional_control_insts            0                       # number of instructions that are conditional controls
system.cpu4.num_fp_alu_accesses                     0                       # Number of float alu accesses
system.cpu4.num_fp_insts                            0                       # number of float instructions
system.cpu4.num_fp_register_reads                   0                       # number of times the floating registers were read
system.cpu4.num_fp_register_writes                  0                       # number of times the floating registers were written
system.cpu4.num_func_calls                          0                       # number of times a function call or return occured
system.cpu4.num_idle_cycles                         0                       # Number of idle cycles
system.cpu4.num_int_alu_accesses                    0                       # Number of integer alu accesses
system.cpu4.num_int_insts                           0                       # number of integer instructions
system.cpu4.num_int_register_reads                  0                       # number of times the integer registers were read
system.cpu4.num_int_register_writes                 0                       # number of times the integer registers were written
system.cpu4.num_load_insts                          0                       # Number of load instructions
system.cpu4.num_mem_refs                            0                       # number of memory refs
system.cpu4.num_store_insts                         0                       # Number of store instructions
system.cpu4.num_vec_alu_accesses                    0                       # Number of vector alu accesses
system.cpu4.num_vec_insts                           0                       # number of vector instructions
system.cpu4.num_vec_register_reads                  0                       # number of times the vector registers were read
system.cpu4.num_vec_register_writes                 0                       # number of times the vector registers were written
system.cpu4.op_class::No_OpClass                    0                       # Class of executed instruction
system.cpu4.op_class::IntAlu                        0                       # Class of executed instruction
system.cpu4.op_class::IntMult                       0                       # Class of executed instruction
system.cpu4.op_class::IntDiv                        0                       # Class of executed instruction
system.cpu4.op_class::FloatAdd                      0                       # Class of executed instruction
system.cpu4.op_class::FloatCmp                      0                       # Class of executed instruction
system.cpu4.op_class::FloatCvt                      0                       # Class of executed instruction
system.cpu4.op_class::FloatMult                     0                       # Class of executed instruction
system.cpu4.op_class::FloatMultAcc                  0                       # Class of executed instruction
system.cpu4.op_class::FloatDiv                      0                       # Class of executed instruction
system.cpu4.op_class::FloatMisc                     0                       # Class of executed instruction
system.cpu4.op_class::FloatSqrt                     0                       # Class of executed instruction
system.cpu4.op_class::SimdAdd                       0                       # Class of executed instruction
system.cpu4.op_class::SimdAddAcc                    0                       # Class of executed instruction
system.cpu4.op_class::SimdAlu                       0                       # Class of executed instruction
system.cpu4.op_class::SimdCmp                       0                       # Class of executed instruction
system.cpu4.op_class::SimdCvt                       0                       # Class of executed instruction
system.cpu4.op_class::SimdMisc                      0                       # Class of executed instruction
system.cpu4.op_class::SimdMult                      0                       # Class of executed instruction
system.cpu4.op_class::SimdMultAcc                   0                       # Class of executed instruction
system.cpu4.op_class::SimdShift                     0                       # Class of executed instruction
system.cpu4.op_class::SimdShiftAcc                  0                       # Class of executed instruction
system.cpu4.op_class::SimdDiv                       0                       # Class of executed instruction
system.cpu4.op_class::SimdSqrt                      0                       # Class of executed instruction
system.cpu4.op_class::SimdFloatAdd                  0                       # Class of executed instruction
system.cpu4.op_class::SimdFloatAlu                  0                       # Class of executed instruction
system.cpu4.op_class::SimdFloatCmp                  0                       # Class of executed instruction
system.cpu4.op_class::SimdFloatCvt                  0                       # Class of executed instruction
system.cpu4.op_class::SimdFloatDiv                  0                       # Class of executed instruction
system.cpu4.op_class::SimdFloatMisc                 0                       # Class of executed instruction
system.cpu4.op_class::SimdFloatMult                 0                       # Class of executed instruction
system.cpu4.op_class::SimdFloatMultAcc              0                       # Class of executed instruction
system.cpu4.op_class::SimdFloatSqrt                 0                       # Class of executed instruction
system.cpu4.op_class::SimdReduceAdd                 0                       # Class of executed instruction
system.cpu4.op_class::SimdReduceAlu                 0                       # Class of executed instruction
system.cpu4.op_class::SimdReduceCmp                 0                       # Class of executed instruction
system.cpu4.op_class::SimdFloatReduceAdd            0                       # Class of executed instruction
system.cpu4.op_class::SimdFloatReduceCmp            0                       # Class of executed instruction
system.cpu4.op_class::SimdAes                       0                       # Class of executed instruction
system.cpu4.op_class::SimdAesMix                    0                       # Class of executed instruction
system.cpu4.op_class::SimdSha1Hash                  0                       # Class of executed instruction
system.cpu4.op_class::SimdSha1Hash2                 0                       # Class of executed instruction
system.cpu4.op_class::SimdSha256Hash                0                       # Class of executed instruction
system.cpu4.op_class::SimdSha256Hash2               0                       # Class of executed instruction
system.cpu4.op_class::SimdShaSigma2                 0                       # Class of executed instruction
system.cpu4.op_class::SimdShaSigma3                 0                       # Class of executed instruction
system.cpu4.op_class::SimdPredAlu                   0                       # Class of executed instruction
system.cpu4.op_class::MemRead                       0                       # Class of executed instruction
system.cpu4.op_class::MemWrite                      0                       # Class of executed instruction
system.cpu4.op_class::FloatMemRead                  0                       # Class of executed instruction
system.cpu4.op_class::FloatMemWrite                 0                       # Class of executed instruction
system.cpu4.op_class::IprAccess                     0                       # Class of executed instruction
system.cpu4.op_class::InstPrefetch                  0                       # Class of executed instruction
system.cpu4.op_class::total                         0                       # Class of executed instruction
system.cpu4.pwrStateResidencyTicks::ON   201656228500                       # Cumulative time (in ticks) in various power states
system.cpu5.apic_clk_domain.clock                8000                       # Clock period in ticks
system.cpu5.committedInsts                          0                       # Number of instructions committed
system.cpu5.committedOps                            0                       # Number of ops (including micro ops) committed
system.cpu5.dtb.pwrStateResidencyTicks::UNDEFINED 201656228500                       # Cumulative time (in ticks) in various power states
system.cpu5.dtb.rdAccesses                          0                       # TLB accesses on read requests
system.cpu5.dtb.rdMisses                            0                       # TLB misses on read requests
system.cpu5.dtb.walker.pwrStateResidencyTicks::UNDEFINED 201656228500                       # Cumulative time (in ticks) in various power states
system.cpu5.dtb.wrAccesses                          0                       # TLB accesses on write requests
system.cpu5.dtb.wrMisses                            0                       # TLB misses on write requests
system.cpu5.idle_fraction                           1                       # Percentage of idle cycles
system.cpu5.interrupts.pwrStateResidencyTicks::UNDEFINED 201656228500                       # Cumulative time (in ticks) in various power states
system.cpu5.itb.pwrStateResidencyTicks::UNDEFINED 201656228500                       # Cumulative time (in ticks) in various power states
system.cpu5.itb.rdAccesses                          0                       # TLB accesses on read requests
system.cpu5.itb.rdMisses                            0                       # TLB misses on read requests
system.cpu5.itb.walker.pwrStateResidencyTicks::UNDEFINED 201656228500                       # Cumulative time (in ticks) in various power states
system.cpu5.itb.wrAccesses                          0                       # TLB accesses on write requests
system.cpu5.itb.wrMisses                            0                       # TLB misses on write requests
system.cpu5.kern.inst.arm                           0                       # number of arm instructions executed
system.cpu5.kern.inst.quiesce                       0                       # number of quiesce instructions executed
system.cpu5.not_idle_fraction                       0                       # Percentage of non-idle cycles
system.cpu5.numCycles                               0                       # number of cpu cycles simulated
system.cpu5.numWorkItemsCompleted                   0                       # number of work items this cpu completed
system.cpu5.numWorkItemsStarted                     0                       # number of work items this cpu started
system.cpu5.num_busy_cycles                         0                       # Number of busy cycles
system.cpu5.num_conditional_control_insts            0                       # number of instructions that are conditional controls
system.cpu5.num_fp_alu_accesses                     0                       # Number of float alu accesses
system.cpu5.num_fp_insts                            0                       # number of float instructions
system.cpu5.num_fp_register_reads                   0                       # number of times the floating registers were read
system.cpu5.num_fp_register_writes                  0                       # number of times the floating registers were written
system.cpu5.num_func_calls                          0                       # number of times a function call or return occured
system.cpu5.num_idle_cycles                         0                       # Number of idle cycles
system.cpu5.num_int_alu_accesses                    0                       # Number of integer alu accesses
system.cpu5.num_int_insts                           0                       # number of integer instructions
system.cpu5.num_int_register_reads                  0                       # number of times the integer registers were read
system.cpu5.num_int_register_writes                 0                       # number of times the integer registers were written
system.cpu5.num_load_insts                          0                       # Number of load instructions
system.cpu5.num_mem_refs                            0                       # number of memory refs
system.cpu5.num_store_insts                         0                       # Number of store instructions
system.cpu5.num_vec_alu_accesses                    0                       # Number of vector alu accesses
system.cpu5.num_vec_insts                           0                       # number of vector instructions
system.cpu5.num_vec_register_reads                  0                       # number of times the vector registers were read
system.cpu5.num_vec_register_writes                 0                       # number of times the vector registers were written
system.cpu5.op_class::No_OpClass                    0                       # Class of executed instruction
system.cpu5.op_class::IntAlu                        0                       # Class of executed instruction
system.cpu5.op_class::IntMult                       0                       # Class of executed instruction
system.cpu5.op_class::IntDiv                        0                       # Class of executed instruction
system.cpu5.op_class::FloatAdd                      0                       # Class of executed instruction
system.cpu5.op_class::FloatCmp                      0                       # Class of executed instruction
system.cpu5.op_class::FloatCvt                      0                       # Class of executed instruction
system.cpu5.op_class::FloatMult                     0                       # Class of executed instruction
system.cpu5.op_class::FloatMultAcc                  0                       # Class of executed instruction
system.cpu5.op_class::FloatDiv                      0                       # Class of executed instruction
system.cpu5.op_class::FloatMisc                     0                       # Class of executed instruction
system.cpu5.op_class::FloatSqrt                     0                       # Class of executed instruction
system.cpu5.op_class::SimdAdd                       0                       # Class of executed instruction
system.cpu5.op_class::SimdAddAcc                    0                       # Class of executed instruction
system.cpu5.op_class::SimdAlu                       0                       # Class of executed instruction
system.cpu5.op_class::SimdCmp                       0                       # Class of executed instruction
system.cpu5.op_class::SimdCvt                       0                       # Class of executed instruction
system.cpu5.op_class::SimdMisc                      0                       # Class of executed instruction
system.cpu5.op_class::SimdMult                      0                       # Class of executed instruction
system.cpu5.op_class::SimdMultAcc                   0                       # Class of executed instruction
system.cpu5.op_class::SimdShift                     0                       # Class of executed instruction
system.cpu5.op_class::SimdShiftAcc                  0                       # Class of executed instruction
system.cpu5.op_class::SimdDiv                       0                       # Class of executed instruction
system.cpu5.op_class::SimdSqrt                      0                       # Class of executed instruction
system.cpu5.op_class::SimdFloatAdd                  0                       # Class of executed instruction
system.cpu5.op_class::SimdFloatAlu                  0                       # Class of executed instruction
system.cpu5.op_class::SimdFloatCmp                  0                       # Class of executed instruction
system.cpu5.op_class::SimdFloatCvt                  0                       # Class of executed instruction
system.cpu5.op_class::SimdFloatDiv                  0                       # Class of executed instruction
system.cpu5.op_class::SimdFloatMisc                 0                       # Class of executed instruction
system.cpu5.op_class::SimdFloatMult                 0                       # Class of executed instruction
system.cpu5.op_class::SimdFloatMultAcc              0                       # Class of executed instruction
system.cpu5.op_class::SimdFloatSqrt                 0                       # Class of executed instruction
system.cpu5.op_class::SimdReduceAdd                 0                       # Class of executed instruction
system.cpu5.op_class::SimdReduceAlu                 0                       # Class of executed instruction
system.cpu5.op_class::SimdReduceCmp                 0                       # Class of executed instruction
system.cpu5.op_class::SimdFloatReduceAdd            0                       # Class of executed instruction
system.cpu5.op_class::SimdFloatReduceCmp            0                       # Class of executed instruction
system.cpu5.op_class::SimdAes                       0                       # Class of executed instruction
system.cpu5.op_class::SimdAesMix                    0                       # Class of executed instruction
system.cpu5.op_class::SimdSha1Hash                  0                       # Class of executed instruction
system.cpu5.op_class::SimdSha1Hash2                 0                       # Class of executed instruction
system.cpu5.op_class::SimdSha256Hash                0                       # Class of executed instruction
system.cpu5.op_class::SimdSha256Hash2               0                       # Class of executed instruction
system.cpu5.op_class::SimdShaSigma2                 0                       # Class of executed instruction
system.cpu5.op_class::SimdShaSigma3                 0                       # Class of executed instruction
system.cpu5.op_class::SimdPredAlu                   0                       # Class of executed instruction
system.cpu5.op_class::MemRead                       0                       # Class of executed instruction
system.cpu5.op_class::MemWrite                      0                       # Class of executed instruction
system.cpu5.op_class::FloatMemRead                  0                       # Class of executed instruction
system.cpu5.op_class::FloatMemWrite                 0                       # Class of executed instruction
system.cpu5.op_class::IprAccess                     0                       # Class of executed instruction
system.cpu5.op_class::InstPrefetch                  0                       # Class of executed instruction
system.cpu5.op_class::total                         0                       # Class of executed instruction
system.cpu5.pwrStateResidencyTicks::ON   201656228500                       # Cumulative time (in ticks) in various power states
system.cpu6.apic_clk_domain.clock                8000                       # Clock period in ticks
system.cpu6.committedInsts                          0                       # Number of instructions committed
system.cpu6.committedOps                            0                       # Number of ops (including micro ops) committed
system.cpu6.dtb.pwrStateResidencyTicks::UNDEFINED 201656228500                       # Cumulative time (in ticks) in various power states
system.cpu6.dtb.rdAccesses                          0                       # TLB accesses on read requests
system.cpu6.dtb.rdMisses                            0                       # TLB misses on read requests
system.cpu6.dtb.walker.pwrStateResidencyTicks::UNDEFINED 201656228500                       # Cumulative time (in ticks) in various power states
system.cpu6.dtb.wrAccesses                          0                       # TLB accesses on write requests
system.cpu6.dtb.wrMisses                            0                       # TLB misses on write requests
system.cpu6.idle_fraction                           1                       # Percentage of idle cycles
system.cpu6.interrupts.pwrStateResidencyTicks::UNDEFINED 201656228500                       # Cumulative time (in ticks) in various power states
system.cpu6.itb.pwrStateResidencyTicks::UNDEFINED 201656228500                       # Cumulative time (in ticks) in various power states
system.cpu6.itb.rdAccesses                          0                       # TLB accesses on read requests
system.cpu6.itb.rdMisses                            0                       # TLB misses on read requests
system.cpu6.itb.walker.pwrStateResidencyTicks::UNDEFINED 201656228500                       # Cumulative time (in ticks) in various power states
system.cpu6.itb.wrAccesses                          0                       # TLB accesses on write requests
system.cpu6.itb.wrMisses                            0                       # TLB misses on write requests
system.cpu6.kern.inst.arm                           0                       # number of arm instructions executed
system.cpu6.kern.inst.quiesce                       0                       # number of quiesce instructions executed
system.cpu6.not_idle_fraction                       0                       # Percentage of non-idle cycles
system.cpu6.numCycles                               0                       # number of cpu cycles simulated
system.cpu6.numWorkItemsCompleted                   0                       # number of work items this cpu completed
system.cpu6.numWorkItemsStarted                     0                       # number of work items this cpu started
system.cpu6.num_busy_cycles                         0                       # Number of busy cycles
system.cpu6.num_conditional_control_insts            0                       # number of instructions that are conditional controls
system.cpu6.num_fp_alu_accesses                     0                       # Number of float alu accesses
system.cpu6.num_fp_insts                            0                       # number of float instructions
system.cpu6.num_fp_register_reads                   0                       # number of times the floating registers were read
system.cpu6.num_fp_register_writes                  0                       # number of times the floating registers were written
system.cpu6.num_func_calls                          0                       # number of times a function call or return occured
system.cpu6.num_idle_cycles                         0                       # Number of idle cycles
system.cpu6.num_int_alu_accesses                    0                       # Number of integer alu accesses
system.cpu6.num_int_insts                           0                       # number of integer instructions
system.cpu6.num_int_register_reads                  0                       # number of times the integer registers were read
system.cpu6.num_int_register_writes                 0                       # number of times the integer registers were written
system.cpu6.num_load_insts                          0                       # Number of load instructions
system.cpu6.num_mem_refs                            0                       # number of memory refs
system.cpu6.num_store_insts                         0                       # Number of store instructions
system.cpu6.num_vec_alu_accesses                    0                       # Number of vector alu accesses
system.cpu6.num_vec_insts                           0                       # number of vector instructions
system.cpu6.num_vec_register_reads                  0                       # number of times the vector registers were read
system.cpu6.num_vec_register_writes                 0                       # number of times the vector registers were written
system.cpu6.op_class::No_OpClass                    0                       # Class of executed instruction
system.cpu6.op_class::IntAlu                        0                       # Class of executed instruction
system.cpu6.op_class::IntMult                       0                       # Class of executed instruction
system.cpu6.op_class::IntDiv                        0                       # Class of executed instruction
system.cpu6.op_class::FloatAdd                      0                       # Class of executed instruction
system.cpu6.op_class::FloatCmp                      0                       # Class of executed instruction
system.cpu6.op_class::FloatCvt                      0                       # Class of executed instruction
system.cpu6.op_class::FloatMult                     0                       # Class of executed instruction
system.cpu6.op_class::FloatMultAcc                  0                       # Class of executed instruction
system.cpu6.op_class::FloatDiv                      0                       # Class of executed instruction
system.cpu6.op_class::FloatMisc                     0                       # Class of executed instruction
system.cpu6.op_class::FloatSqrt                     0                       # Class of executed instruction
system.cpu6.op_class::SimdAdd                       0                       # Class of executed instruction
system.cpu6.op_class::SimdAddAcc                    0                       # Class of executed instruction
system.cpu6.op_class::SimdAlu                       0                       # Class of executed instruction
system.cpu6.op_class::SimdCmp                       0                       # Class of executed instruction
system.cpu6.op_class::SimdCvt                       0                       # Class of executed instruction
system.cpu6.op_class::SimdMisc                      0                       # Class of executed instruction
system.cpu6.op_class::SimdMult                      0                       # Class of executed instruction
system.cpu6.op_class::SimdMultAcc                   0                       # Class of executed instruction
system.cpu6.op_class::SimdShift                     0                       # Class of executed instruction
system.cpu6.op_class::SimdShiftAcc                  0                       # Class of executed instruction
system.cpu6.op_class::SimdDiv                       0                       # Class of executed instruction
system.cpu6.op_class::SimdSqrt                      0                       # Class of executed instruction
system.cpu6.op_class::SimdFloatAdd                  0                       # Class of executed instruction
system.cpu6.op_class::SimdFloatAlu                  0                       # Class of executed instruction
system.cpu6.op_class::SimdFloatCmp                  0                       # Class of executed instruction
system.cpu6.op_class::SimdFloatCvt                  0                       # Class of executed instruction
system.cpu6.op_class::SimdFloatDiv                  0                       # Class of executed instruction
system.cpu6.op_class::SimdFloatMisc                 0                       # Class of executed instruction
system.cpu6.op_class::SimdFloatMult                 0                       # Class of executed instruction
system.cpu6.op_class::SimdFloatMultAcc              0                       # Class of executed instruction
system.cpu6.op_class::SimdFloatSqrt                 0                       # Class of executed instruction
system.cpu6.op_class::SimdReduceAdd                 0                       # Class of executed instruction
system.cpu6.op_class::SimdReduceAlu                 0                       # Class of executed instruction
system.cpu6.op_class::SimdReduceCmp                 0                       # Class of executed instruction
system.cpu6.op_class::SimdFloatReduceAdd            0                       # Class of executed instruction
system.cpu6.op_class::SimdFloatReduceCmp            0                       # Class of executed instruction
system.cpu6.op_class::SimdAes                       0                       # Class of executed instruction
system.cpu6.op_class::SimdAesMix                    0                       # Class of executed instruction
system.cpu6.op_class::SimdSha1Hash                  0                       # Class of executed instruction
system.cpu6.op_class::SimdSha1Hash2                 0                       # Class of executed instruction
system.cpu6.op_class::SimdSha256Hash                0                       # Class of executed instruction
system.cpu6.op_class::SimdSha256Hash2               0                       # Class of executed instruction
system.cpu6.op_class::SimdShaSigma2                 0                       # Class of executed instruction
system.cpu6.op_class::SimdShaSigma3                 0                       # Class of executed instruction
system.cpu6.op_class::SimdPredAlu                   0                       # Class of executed instruction
system.cpu6.op_class::MemRead                       0                       # Class of executed instruction
system.cpu6.op_class::MemWrite                      0                       # Class of executed instruction
system.cpu6.op_class::FloatMemRead                  0                       # Class of executed instruction
system.cpu6.op_class::FloatMemWrite                 0                       # Class of executed instruction
system.cpu6.op_class::IprAccess                     0                       # Class of executed instruction
system.cpu6.op_class::InstPrefetch                  0                       # Class of executed instruction
system.cpu6.op_class::total                         0                       # Class of executed instruction
system.cpu6.pwrStateResidencyTicks::ON   201656228500                       # Cumulative time (in ticks) in various power states
system.cpu7.apic_clk_domain.clock                8000                       # Clock period in ticks
system.cpu7.committedInsts                          0                       # Number of instructions committed
system.cpu7.committedOps                            0                       # Number of ops (including micro ops) committed
system.cpu7.dtb.pwrStateResidencyTicks::UNDEFINED 201656228500                       # Cumulative time (in ticks) in various power states
system.cpu7.dtb.rdAccesses                          0                       # TLB accesses on read requests
system.cpu7.dtb.rdMisses                            0                       # TLB misses on read requests
system.cpu7.dtb.walker.pwrStateResidencyTicks::UNDEFINED 201656228500                       # Cumulative time (in ticks) in various power states
system.cpu7.dtb.wrAccesses                          0                       # TLB accesses on write requests
system.cpu7.dtb.wrMisses                            0                       # TLB misses on write requests
system.cpu7.idle_fraction                           1                       # Percentage of idle cycles
system.cpu7.interrupts.pwrStateResidencyTicks::UNDEFINED 201656228500                       # Cumulative time (in ticks) in various power states
system.cpu7.itb.pwrStateResidencyTicks::UNDEFINED 201656228500                       # Cumulative time (in ticks) in various power states
system.cpu7.itb.rdAccesses                          0                       # TLB accesses on read requests
system.cpu7.itb.rdMisses                            0                       # TLB misses on read requests
system.cpu7.itb.walker.pwrStateResidencyTicks::UNDEFINED 201656228500                       # Cumulative time (in ticks) in various power states
system.cpu7.itb.wrAccesses                          0                       # TLB accesses on write requests
system.cpu7.itb.wrMisses                            0                       # TLB misses on write requests
system.cpu7.kern.inst.arm                           0                       # number of arm instructions executed
system.cpu7.kern.inst.quiesce                       0                       # number of quiesce instructions executed
[...]
system.ruby.network.routers12.throttle0.msg_count.Control::2        66419                      
system.ruby.network.routers12.throttle0.msg_count.Data::2         9647                      
system.ruby.network.routers12.throttle1.link_utilization     0.075304                      
system.ruby.network.routers12.throttle1.msg_bytes.Control::3        77176                      
system.ruby.network.routers12.throttle1.msg_bytes.Data::4      4782168                      
system.ruby.network.routers12.throttle1.msg_count.Control::3         9647                      
system.ruby.network.routers12.throttle1.msg_count.Data::4        66419                      
system.ruby.network.routers13.msg_bytes.Control::2      2038296                      
system.ruby.network.routers13.msg_bytes.Control::3        77128                      
system.ruby.network.routers13.msg_bytes.Data::2       694152                      
system.ruby.network.routers13.msg_bytes.Data::4     18344664                      
system.ruby.network.routers13.msg_count.Control::2       254787                      
system.ruby.network.routers13.msg_count.Control::3         9641                      
system.ruby.network.routers13.msg_count.Data::2         9641                      
system.ruby.network.routers13.msg_count.Data::4       254787                      
system.ruby.network.routers13.percent_links_utilized     0.163910                      
system.ruby.network.routers13.port_buffers02.avg_buf_msgs     0.000656                       # Average number of messages in buffer
system.ruby.network.routers13.port_buffers02.avg_stall_time  3101.934280                       # Average number of cycles messages are stalled in this MB
system.ruby.network.routers13.port_buffers08.avg_buf_msgs     0.000024                       # Average number of messages in buffer
system.ruby.network.routers13.port_buffers08.avg_stall_time   998.198727                       # Average number of cycles messages are stalled in this MB
system.ruby.network.routers13.port_buffers09.avg_buf_msgs     0.000632                       # Average number of messages in buffer
system.ruby.network.routers13.port_buffers09.avg_stall_time   999.929516                       # Average number of cycles messages are stalled in this MB
system.ruby.network.routers13.pwrStateResidencyTicks::UNDEFINED 201656228500                       # Cumulative time (in ticks) in various power states
system.ruby.network.routers13.throttle0.link_utilization     0.042344                      
system.ruby.network.routers13.throttle0.msg_bytes.Control::2      2038296                      
system.ruby.network.routers13.throttle0.msg_bytes.Data::2       694152                      
system.ruby.network.routers13.throttle0.msg_count.Control::2       254787                      
system.ruby.network.routers13.throttle0.msg_count.Data::2         9641                      
system.ruby.network.routers13.throttle1.link_utilization     0.285476                      
system.ruby.network.routers13.throttle1.msg_bytes.Control::3        77128                      
system.ruby.network.routers13.throttle1.msg_bytes.Data::4     18344664                      
system.ruby.network.routers13.throttle1.msg_count.Control::3         9641                      
system.ruby.network.routers13.throttle1.msg_count.Data::4       254787                      
system.ruby.network.routers14.msg_bytes.Control::2       817384                      
system.ruby.network.routers14.msg_bytes.Control::3        77176                      
system.ruby.network.routers14.msg_bytes.Data::2       694584                      
system.ruby.network.routers14.msg_bytes.Data::4      7356456                      
system.ruby.network.routers14.msg_count.Control::2       102173                      
system.ruby.network.routers14.msg_count.Control::3         9647                      
system.ruby.network.routers14.msg_count.Data::2         9647                      
system.ruby.network.routers14.msg_count.Data::4       102173                      
system.ruby.network.routers14.percent_links_utilized     0.069314                      
system.ruby.network.routers14.port_buffers02.avg_buf_msgs     0.000277                       # Average number of messages in buffer
system.ruby.network.routers14.port_buffers02.avg_stall_time  3104.872122                       # Average number of cycles messages are stalled in this MB
system.ruby.network.routers14.port_buffers08.avg_buf_msgs     0.000024                       # Average number of messages in buffer
system.ruby.network.routers14.port_buffers08.avg_stall_time   998.744742                       # Average number of cycles messages are stalled in this MB
system.ruby.network.routers14.port_buffers09.avg_buf_msgs     0.000253                       # Average number of messages in buffer
system.ruby.network.routers14.port_buffers09.avg_stall_time   999.994156                       # Average number of cycles messages are stalled in this MB
system.ruby.network.routers14.pwrStateResidencyTicks::UNDEFINED 201656228500                       # Cumulative time (in ticks) in various power states
system.ruby.network.routers14.throttle0.link_utilization     0.023430                      
system.ruby.network.routers14.throttle0.msg_bytes.Control::2       817384                      
system.ruby.network.routers14.throttle0.msg_bytes.Data::2       694584                      
system.ruby.network.routers14.throttle0.msg_count.Control::2       102173                      
system.ruby.network.routers14.throttle0.msg_count.Data::2         9647                      
system.ruby.network.routers14.throttle1.link_utilization     0.115197                      
system.ruby.network.routers14.throttle1.msg_bytes.Control::3        77176                      
system.ruby.network.routers14.throttle1.msg_bytes.Data::4      7356456                      
system.ruby.network.routers14.throttle1.msg_count.Control::3         9647                      
system.ruby.network.routers14.throttle1.msg_count.Data::4       102173                      
system.ruby.network.routers15.msg_bytes.Control::2       846080                      
system.ruby.network.routers15.msg_bytes.Control::3        77160                      
system.ruby.network.routers15.msg_bytes.Data::2       694440                      
system.ruby.network.routers15.msg_bytes.Data::4      7614720                      
system.ruby.network.routers15.msg_count.Control::2       105760                      
system.ruby.network.routers15.msg_count.Control::3         9645                      
system.ruby.network.routers15.msg_count.Data::2         9645                      
system.ruby.network.routers15.msg_count.Data::4       105760                      
system.ruby.network.routers15.percent_links_utilized     0.071536                      
system.ruby.network.routers15.port_buffers02.avg_buf_msgs     0.000286                       # Average number of messages in buffer
system.ruby.network.routers15.port_buffers02.avg_stall_time  3102.000274                       # Average number of cycles messages are stalled in this MB
system.ruby.network.routers15.port_buffers08.avg_buf_msgs     0.000024                       # Average number of messages in buffer
system.ruby.network.routers15.port_buffers08.avg_stall_time   998.735410                       # Average number of cycles messages are stalled in this MB
system.ruby.network.routers15.port_buffers09.avg_buf_msgs     0.000262                       # Average number of messages in buffer
system.ruby.network.routers15.port_buffers09.avg_stall_time   999.967006                       # Average number of cycles messages are stalled in this MB
system.ruby.network.routers15.pwrStateResidencyTicks::UNDEFINED 201656228500                       # Cumulative time (in ticks) in various power states
system.ruby.network.routers15.throttle0.link_utilization     0.023873                      
system.ruby.network.routers15.throttle0.msg_bytes.Control::2       846080                      
system.ruby.network.routers15.throttle0.msg_bytes.Data::2       694440                      
system.ruby.network.routers15.throttle0.msg_count.Control::2       105760                      
system.ruby.network.routers15.throttle0.msg_count.Data::2         9645                      
system.ruby.network.routers15.throttle1.link_utilization     0.119199                      
system.ruby.network.routers15.throttle1.msg_bytes.Control::3        77160                      
system.ruby.network.routers15.throttle1.msg_bytes.Data::4      7614720                      
system.ruby.network.routers15.throttle1.msg_count.Control::3         9645                      
system.ruby.network.routers15.throttle1.msg_count.Data::4       105760                      
system.ruby.network.routers16.percent_links_utilized            0                      
system.ruby.network.routers16.pwrStateResidencyTicks::UNDEFINED 201656228500                       # Cumulative time (in ticks) in various power states
system.ruby.network.routers16.throttle0.link_utilization            0                      
system.ruby.network.routers16.throttle1.link_utilization            0                      
system.ruby.network.routers17.percent_links_utilized            0                      
system.ruby.network.routers17.pwrStateResidencyTicks::UNDEFINED 201656228500                       # Cumulative time (in ticks) in various power states
system.ruby.network.routers17.throttle0.link_utilization            0                      
system.ruby.network.routers17.throttle1.link_utilization            0                      
system.ruby.network.routers18.msg_bytes.Control::2     26415040                      
system.ruby.network.routers18.msg_bytes.Control::3       617840                      
system.ruby.network.routers18.msg_bytes.Data::2      5560560                      
system.ruby.network.routers18.msg_bytes.Data::4    237735288                      
system.ruby.network.routers18.msg_count.Control::2      3301880                      
system.ruby.network.routers18.msg_count.Control::3        77230                      
system.ruby.network.routers18.msg_count.Data::2        77230                      
system.ruby.network.routers18.msg_count.Data::4      3301879                      
system.ruby.network.routers18.percent_links_utilized     0.232733                      
system.ruby.network.routers18.port_buffers003.avg_buf_msgs     0.000191                       # Average number of messages in buffer
system.ruby.network.routers18.port_buffers003.avg_stall_time  1997.489475                       # Average number of cycles messages are stalled in this MB
system.ruby.network.routers18.port_buffers004.avg_buf_msgs     0.008187                       # Average number of messages in buffer
system.ruby.network.routers18.port_buffers004.avg_stall_time  2000.004671                       # Average number of cycles messages are stalled in this MB
system.ruby.network.routers18.port_buffers042.avg_buf_msgs     0.000456                       # Average number of messages in buffer
system.ruby.network.routers18.port_buffers042.avg_stall_time  2105.432627                       # Average number of cycles messages are stalled in this MB
system.ruby.network.routers18.port_buffers047.avg_buf_msgs     0.000560                       # Average number of messages in buffer
system.ruby.network.routers18.port_buffers047.avg_stall_time  2103.756855                       # Average number of cycles messages are stalled in this MB
system.ruby.network.routers18.port_buffers052.avg_buf_msgs     0.004387                       # Average number of messages in buffer
system.ruby.network.routers18.port_buffers052.avg_stall_time  2103.719221                       # Average number of cycles messages are stalled in this MB
system.ruby.network.routers18.port_buffers057.avg_buf_msgs     0.001568                       # Average number of messages in buffer
system.ruby.network.routers18.port_buffers057.avg_stall_time  2101.470731                       # Average number of cycles messages are stalled in this MB
system.ruby.network.routers18.port_buffers062.avg_buf_msgs     0.000189                       # Average number of messages in buffer
system.ruby.network.routers18.port_buffers062.avg_stall_time  2107.344649                       # Average number of cycles messages are stalled in this MB
system.ruby.network.routers18.port_buffers067.avg_buf_msgs     0.000656                       # Average number of messages in buffer
system.ruby.network.routers18.port_buffers067.avg_stall_time  2102.004471                       # Average number of cycles messages are stalled in this MB
system.ruby.network.routers18.port_buffers072.avg_buf_msgs     0.000277                       # Average number of messages in buffer
system.ruby.network.routers18.port_buffers072.avg_stall_time  2104.877703                       # Average number of cycles messages are stalled in this MB
system.ruby.network.routers18.port_buffers077.avg_buf_msgs     0.000286                       # Average number of messages in buffer
system.ruby.network.routers18.port_buffers077.avg_stall_time  2102.033005                       # Average number of cycles messages are stalled in this MB
system.ruby.network.routers18.pwrStateResidencyTicks::UNDEFINED 201656228500                       # Cumulative time (in ticks) in various power states
system.ruby.network.routers18.throttle0.link_utilization     3.693680                      
system.ruby.network.routers18.throttle0.msg_bytes.Control::3       617840                      
system.ruby.network.routers18.throttle0.msg_bytes.Data::4    237735288                      
system.ruby.network.routers18.throttle0.msg_count.Control::3        77230                      
system.ruby.network.routers18.throttle0.msg_count.Data::4      3301879                      
system.ruby.network.routers18.throttle1.link_utilization            0                      
system.ruby.network.routers18.throttle10.link_utilization     0.228923                      
system.ruby.network.routers18.throttle10.msg_bytes.Control::2     14078392                      
system.ruby.network.routers18.throttle10.msg_bytes.Data::2       694008                      
system.ruby.network.routers18.throttle10.msg_count.Control::2      1759799                      
system.ruby.network.routers18.throttle10.msg_count.Data::2         9639                      
system.ruby.network.routers18.throttle11.link_utilization     0.087953                      
system.ruby.network.routers18.throttle11.msg_bytes.Control::2      4981048                      
system.ruby.network.routers18.throttle11.msg_bytes.Data::2       694584                      
system.ruby.network.routers18.throttle11.msg_count.Control::2       622631                      
system.ruby.network.routers18.throttle11.msg_count.Data::2         9647                      
system.ruby.network.routers18.throttle12.link_utilization     0.018998                      
system.ruby.network.routers18.throttle12.msg_bytes.Control::2       531352                      
system.ruby.network.routers18.throttle12.msg_bytes.Data::2       694584                      
system.ruby.network.routers18.throttle12.msg_count.Control::2        66419                      
system.ruby.network.routers18.throttle12.msg_count.Data::2         9647                      
system.ruby.network.routers18.throttle13.link_utilization     0.042344                      
system.ruby.network.routers18.throttle13.msg_bytes.Control::2      2038296                      
system.ruby.network.routers18.throttle13.msg_bytes.Data::2       694152                      
system.ruby.network.routers18.throttle13.msg_count.Control::2       254787                      
system.ruby.network.routers18.throttle13.msg_count.Data::2         9641                      
system.ruby.network.routers18.throttle14.link_utilization     0.023430                      
system.ruby.network.routers18.throttle14.msg_bytes.Control::2       817384                      
system.ruby.network.routers18.throttle14.msg_bytes.Data::2       694584                      
system.ruby.network.routers18.throttle14.msg_count.Control::2       102173                      
system.ruby.network.routers18.throttle14.msg_count.Data::2         9647                      
system.ruby.network.routers18.throttle15.link_utilization     0.023873                      
system.ruby.network.routers18.throttle15.msg_bytes.Control::2       846080                      
system.ruby.network.routers18.throttle15.msg_bytes.Data::2       694440                      
system.ruby.network.routers18.throttle15.msg_count.Control::2       105760                      
system.ruby.network.routers18.throttle15.msg_count.Data::2         9645                      
system.ruby.network.routers18.throttle16.link_utilization            0                      
system.ruby.network.routers18.throttle17.link_utilization            0                      
system.ruby.network.routers18.throttle2.link_utilization            0                      
system.ruby.network.routers18.throttle3.link_utilization            0                      
system.ruby.network.routers18.throttle4.link_utilization            0                      
system.ruby.network.routers18.throttle5.link_utilization            0                      
system.ruby.network.routers18.throttle6.link_utilization            0                      
system.ruby.network.routers18.throttle7.link_utilization            0                      
system.ruby.network.routers18.throttle8.link_utilization     0.032428                      
system.ruby.network.routers18.throttle8.msg_bytes.Control::2      1393248                      
system.ruby.network.routers18.throttle8.msg_bytes.Data::2       699336                      
system.ruby.network.routers18.throttle8.msg_count.Control::2       174156                      
system.ruby.network.routers18.throttle8.msg_count.Data::2         9713                      
system.ruby.network.routers18.throttle9.link_utilization     0.037566                      
system.ruby.network.routers18.throttle9.msg_bytes.Control::2      1729240                      
system.ruby.network.routers18.throttle9.msg_bytes.Data::2       694872                      
system.ruby.network.routers18.throttle9.msg_count.Control::2       216155                      
system.ruby.network.routers18.throttle9.msg_count.Data::2         9651                      
system.ruby.outstanding_req_hist_seqr::bucket_size            1                      
system.ruby.outstanding_req_hist_seqr::max_bucket            9                      
system.ruby.outstanding_req_hist_seqr::samples      8276959                      
system.ruby.outstanding_req_hist_seqr::mean     1.000004                      
system.ruby.outstanding_req_hist_seqr::gmean     1.000003                      
system.ruby.outstanding_req_hist_seqr::stdev     0.002114                      
system.ruby.outstanding_req_hist_seqr    |           0      0.00%      0.00% |     8276925    100.00%    100.00% |          33      0.00%    100.00% |           1      0.00%    100.00% |           0      0.00%    100.00% |           0      0.00%    100.00% |           0      0.00%    100.00% |           0      0.00%    100.00% |           0      0.00%    100.00% |           0      0.00%    100.00%
system.ruby.outstanding_req_hist_seqr::total      8276959                      
system.ruby.pwrStateResidencyTicks::UNDEFINED 201656228500                       # Cumulative time (in ticks) in various power states
system.sys_port_proxy.pwrStateResidencyTicks::UNDEFINED 201656228500                       # Cumulative time (in ticks) in various power states
system.voltage_domain.voltage                       1                       # Voltage in Volts

---------- End Simulation Statistics   ----------
